PHYSICAL_PROBLEM= NAVIER_STOKES
MATH_PROBLEM= DIRECT 
RESTART_SOL= NO
SYSTEM_MEASUREMENTS= SI
REGIME_TYPE= COMPRESSIBLE
REYNOLDS_NUMBER= 3000000.0
MACH_NUMBER= 0.8
AOA= 1.25
SIDESLIP_ANGLE= 0.0
DISCARD_INFILES= NO
INIT_OPTION= REYNOLDS
FREESTREAM_OPTION= TEMPERATURE_FS
FREESTREAM_PRESSURE= 101325.0
FREESTREAM_TEMPERATURE= 288.15
REYNOLDS_LENGTH= 1.0
FLUID_MODEL= PR_GAS
GAMMA= 1.4
CRITICAL_TEMPERATURE= 131.0
GAS_CONSTANT= 287.0
CRITICAL_PRESSURE= 3588550.0
ACCENTRIC_FACTOR= 0.035
VISCOSITY_MODEL= SUTHERLAND
MU_REF= 1.716e-05
MU_T_REF= 273.15
SUTHERLAND_CONSTANT= 110.4
REF_NONDIMENSIONALISATION= DIMENSIONAL
REF_LENGTH= 1.0
REF_AREA= 0.0
REF_ORIGIN_MOMENT_X=0.25
REF_ORIGIN_MOMENT_Y=0.0
REF_ORIGIN_MOMENT_Z=0.0
FREESTREAM_VISCOSITY= 1.853e-05
UNSTEADY_SIMULATION= NO
UNST_TIMESTEP= 0.0
UNST_TIME= 50.0
UNST_CFL_NUMBER= 0.0
UNST_INT_ITER= 200
UNST_RESTART_ITER= 0
MARKER_EULER= (none)
MARKER_SYM= (none)
MARKER_FAR= (none)
MARKER_INTERNAL= (none)
MARKER_NEARFIELD= (none)
MARKER_PRESSURE= (none)
MARKER_DIRICHLET= (none)
MARKER_NEUMANN= (none)
MARKER_OUTLET= (none,0.0)
MARKER_HEATFLUX= (none,0.0)
MARKER_ISOTHERMAL= (none,0.0)
MARKER_PLOTTING= (none)
MARKER_MONITORING= (none)
MARKER_DESIGNING= (none)
