PHYSICAL_PROBLEM= EULER
KIND_TURB_MODEL= NONE
MATH_PROBLEM= DIRECT 
RESTART_SOL= NO
REGIME_TYPE= COMPRESSIBLE
SYSTEM_MEASUREMENTS= SI
REYNOLDS_NUMBER= 3000000.0
MACH_NUMBER= 0.8
AOA= 1.25
SIDESLIP_ANGLE= 0.0
DISCARD_INFILES= NO
FIXED_CL_MODE= NO
TARGET_CL= 0.8
INIT_OPTION= REYNOLDS
FREESTREAM_OPTION= TEMPERATURE_FS
FREESTREAM_PRESSURE= 101325.0
FREESTREAM_TEMPERATURE= 288.15
REYNOLDS_LENGTH= 1.0
FREESTREAM_DENSITY= 1.2886
FREESTREAM_VELOCITY= (1.0,0.0,0.0)
