%--------Problem definition-----------%
PHYSICAL_PROBLEM= NAVIER_STOKES
MATH_PROBLEM= DIRECT 
KIND_TURB_MODEL= SA
RESTART_SOL= NO
SYSTEM_MEASUREMENTS= SI
%--------Compressible flow parameters-----------%
REGIME_TYPE= COMPRESSIBLE
REYNOLDS_NUMBER= 3000000.0
MACH_NUMBER= 0.8
AOA= 1.25
SIDESLIP_ANGLE= 0.0
DISCARD_INFILES= NO
INIT_OPTION= REYNOLDS
FREESTREAM_OPTION= TEMPERATURE_FS
FREESTREAM_PRESSURE= 101325.0
FREESTREAM_TEMPERATURE= 288.15
REYNOLDS_LENGTH= 1.0
%--------Fluid model parameters-----------%
FLUID_MODEL= STANDARD_AIR
GAMMA= 1.4
CRITICAL_TEMPERATURE= 131.0
GAS_CONSTANT= 287.058
CRITICAL_PRESSURE= 3588550.0
ACCENTRIC_FACTOR= 0.035
%--------Fluid Model parameters-----------%
FLUID_MODEL= STANDARD_AIR
GAMMA= 1.4
CRITICAL_TEMPERATURE= 131.0
GAS_CONSTANT= 287.0
CRITICAL_PRESSURE= 3588550.0
ACCENTRIC_FACTOR= 0.035
%--------Viscosity model parameters-----------%
VISCOSITY_MODEL= SUTHERLAND
MU_REF= 1.716e-05
MU_T_REF= 273.15
SUTHERLAND_CONSTANT= 110.4
%--------Grid Movement-----------%
GRID_MOVEMENT= YES
GRID_MOVEMENT_KIND= NONE
MARKER_MOVING= none
MACH_MOTION= 0.8
MOTION_ORIGIN_X=1.0
MOTION_ORIGIN_Y=0.0
MOTION_ORIGIN_Z=0.0
ROTATION_RATE_X=1.0
ROTATION_RATE_Y=0.0
ROTATION_RATE_Z=0.0
PITCHING_OMEGA_X=1.0
PITCHING_OMEGA_Y=0.0
PITCHING_OMEGA_Z=0.0
PITCHING_AMPL_X=1.0
PITCHING_AMPL_Y=0.0
PITCHING_AMPL_Z=0.0
PITCHING_PHASE_X=1.0
PITCHING_PHASE_Y=0.0
PITCHING_PHASE_Z=0.0
TRANSLATION_RATE_X=1.0
TRANSLATION_RATE_Y=0.0
TRANSLATION_RATE_Z=0.0
PLUNGING_OMEGA_X=1.0
PLUNGING_OMEGA_Y=0.0
PLUNGING_OMEGA_Z=0.0
PLUNGING_AMPL_X=1.0
PLUNGING_AMPL_Y=0.0
PLUNGING_AMPL_Z=0.0
MOVE_MOTION_ORIGIN=0
%--------Reference value definition-----------%
REF_NONDIMENSIONALISATION= DIMENSIONAL
REF_LENGTH= 1.0
REF_AREA= 0.0
REF_ORIGIN_MOMENT_X=0.25
REF_ORIGIN_MOMENT_Y=0.0
REF_ORIGIN_MOMENT_Z=0.0
FREESTREAM_VISCOSITY= 1.853e-05
%--------Unsteady simulation parameters-----------%
UNSTEADY_SIMULATION= NO
UNST_TIMESTEP= 0.0
UNST_TIME= 50.0
UNST_CFL_NUMBER= 0.0
UNST_INT_ITER= 200
UNST_RESTART_ITER= 0
%--------Flow numerical method definition-----------%
CONV_NUM_METHOD_FLOW= JST
NUM_METHOD_GRAD= GREEN_GAUSS
SLOPE_LIMITER_FLOW= NONE
TIME_DISCRE_FLOW= EULER_IMPLICIT
CFL_NUMBER= 10.0
CFL_ADAPT= NO
CFL_ADAPT_PARAM= (1.5,0.5,1.25,50.0)
MAX_DELTA_TIME= 1000000.0
ENTROPY_FIX_COEFF= 0.0
RELAXATION_FACTOR_FLOW= 0.95
%--------Turbulent numerical method definition-----------%
CONV_NUM_METHOD_TURB= SCALAR UPWIND
TIME_DISCRE_TURB= EULER_IMPLICIT
RELAXATION_FACTOR_TURB= 0.95
CFL_REDUCTION_TURB= 1.0
%--------Multigrid parameters-----------%
MGLEVEL= 0
MGCYCLE= V_CYCLE
MG_PRE_SMOOTH= (1,1,1,1)
MG_POST_SMOOTH= (1,1,1,1)
MG_CORRECTION_SMOOTH= (1,1,1,1)
MG_DAMP_RESTRICTION= 0.75
MG_DAMP_PROLONGATION= 0.75
%--------Linear solver parameters-----------%
LINEAR_SOLVER= FGMRES
LINEAR_SOLVER_PREC= ILU
LINEAR_SOLVER_ILU_FILL_IN= 0
LINEAR_SOLVER_ERROR= 1e-06
LINEAR_SOLVER_ITER= 10
%--------Boundary conditions-----------%
MARKER_EULER= (none)
MARKER_SYM= (none)
MARKER_FAR= (none)
MARKER_INTERNAL= (none)
MARKER_NEARFIELD= (none)
MARKER_PRESSURE= (none)
MARKER_DIRICHLET= (none)
MARKER_NEUMANN= (none)
MARKER_OUTLET= (none,0.0)
MARKER_HEATFLUX= (none,0.0)
MARKER_ISOTHERMAL= (none,0.0)
%--------Monitioring solution-----------%
MARKER_PLOTTING= (none)
MARKER_MONITORING= (none)
MARKER_DESIGNING= (none)
%--------Convergence criteria-----------%
EXTITER= 99999
STARTCONV_ITER= 10
CONV_CRITERIA= RESIDUAL
RESIDUAL_REDUCTION= 100
RESIDUAL_MINVAL= 1e-10
%--------Input/Output information-----------%
MESH_FILENAME= 
MESH_FORMAT= SU2
SOLUTION_FLOW_FILENAME= solution_flow.dat
OUTPUT_FORMAT= TECPLOT
CONV_FILENAME= history
BREAKDOWN_FILENAME= forces_breakdown.dat
RESTART_FLOW_FILENAME= restart_flow.dat
VOLUME_FLOW_FILENAME= flow.dat
SURFACE_FLOW_FILENAME= surface_flow.dat
WRT_SOL_FREQ= 1000
WRT_SOL_FREQ_DUALTIME= 1
WRT_CONV_FREQ= 1
WRT_CONV_FREQ_DUALTIME= 10
WRT_RESIDUALS= NO
WRT_LIMITERS= NO
WRT_SURFACE= NO
LOW_MEMORY_OUTPUT= NO
CONSOLE_OUTPUT_VERBOSITY= HIGH
WRT_BINARY_RESTART= YES
READ_BINARY_RESTART= NO
