PHYSICAL_PROBLEM= NAVIER_STOKES
MATH_PROBLEM= DIRECT 
RESTART_SOL= NO
SYSTEM_MEASUREMENTS= SI
REGIME_TYPE= INCOMPRESSIBLE
FREESTREAM_DENSITY= 1.2886
FREESTREAM_VELOCITY= (1.0,0.0,0.0)
FREESTREAM_VISCOSITY= 1.853e-05
REF_NONDIMENSIONALISATION= DIMENSIONAL
REF_LENGTH= 1.0
REF_AREA= 0.0
REF_ORIGIN_MOMENT_X=0.25
REF_ORIGIN_MOMENT_Y=0.0
REF_ORIGIN_MOMENT_Z=0.0
FREESTREAM_VISCOSITY= 1.853e-05
UNSTEADY_SIMULATION= NO
UNST_TIMESTEP= 0.0
UNST_TIME= 50.0
UNST_CFL_NUMBER= 0.0
UNST_INT_ITER= 200
UNST_RESTART_ITER= 0
